Mineral: Albite
Rruff sample: X050007
Ideal chemistry: NaAlSi_3_O_8_
Locality: New Melones Dam, Calaveras County, California
Source: George R. Rossman
x	intensity
206	0
210	124.997
214	36.605
218	5.736
222	7.054
226	2.778
230	1.739
234	2.188
238	1.39
242	15.076
246	58.718
250	161.022
254	155.894
258	60.929
262	44.041
266	89.446
270	133.422
274	104.199
278	93.299
282	164.186
286	396.189
290	752.557
294	549.671
298	221.177
302	96.039
306	64.034
310	53.731
314	42.379
318	35.303
322	51.733
326	121.465
330	180.39
334	81.245
338	31.306
342	15.39
346	11.837
350	11.845
354	6.04
358	2.43
362	0.278
366	1.091
370	1.061
374	1.723
378	1.406
382	0.452
386	1.189
390	5.759
394	14.89
398	34.081
402	44.999
406	88.471
410	96.662
414	63.208
418	58.317
422	18.462
426	6.682
430	2.857
434	2.637
438	3.71
442	3.821
446	6.503
450	10.324
454	19.534
458	28.359
462	30.206
466	45.137
470	91.532
474	235.798
478	547.443
482	447.862
486	190.237
490	100.506
494	93.996
498	153.208
502	379.546
506	852.682
510	782.016
514	317.215
518	130.069
522	69.167
526	40.284
530	26.124
534	17.088
538	10.242
542	6.06
546	3.495
550	1.577
554	0.078
558	0.371
562	0.91
566	0.672
570	1.295
574	7.898
578	18.047
582	16.231
586	5.616
590	0.848
594	0.319
598	0.808
602	0.36
606	0.019
610	0.376
614	0.728
618	1.606
622	4.174
626	8.672
630	17.562
634	23.466
638	18.467
642	19.408
646	23.471
650	18.69
654	9.489
658	4.375
662	1.889
666	2.008
670	0.868
674	0.82
678	0.067
682	0.059
686	0.226
690	0.451
694	0.694
698	0.206
702	0.163
706	0.205
710	1.236
714	1.699
718	3.502
722	4.545
726	2.881
730	2.133
734	2.089
738	2.429
742	3.6
746	4.316
750	7.849
754	13.919
758	31.368
762	59.337
766	51.033
770	28.693
774	23.94
778	18.543
782	10.908
786	8.563
790	6.674
794	6.852
798	6.802
802	7.642
806	11.317
810	22.856
814	38.311
818	28.253
822	12.663
826	7.169
830	5.307
834	4.391
838	3.449
842	2.618
846	2.377
850	1.59
854	0.633
858	0.672
862	0.707
866	0.738
870	0.766
874	0.209
878	0.368
882	0.176
886	0.167
890	0.163
894	0.161
898	0.161
902	0.395
906	0.267
910	0.414
914	0.249
918	0.835
922	0.838
926	0.16
930	0.249
934	0.158
938	0.258
942	0.264
946	0.4
950	0.832
954	1.293
958	1.825
962	2.313
966	2.796
970	5.877
974	11.495
978	13.768
982	8.805
986	3.967
990	3.588
994	3.512
998	5.226
1002	9.681
1006	14.071
1010	18.16
1014	20.304
1018	15.281
1022	13.455
1026	18.848
1030	29.916
1034	29.599
1038	16.79
1042	10.008
1046	6.956
1050	4.394
1054	3.475
1058	2.513
1062	2.558
1066	2.6
1070	3.561
1074	4.727
1078	6.956
1082	11.191
1086	18.261
1090	34.085
1094	63.07
1098	87.284
1102	73.426
1106	53.029
1110	45.579
1114	44.426
1118	34.724
1122	20.728
1126	11.73
1130	6.959
1134	4.396
1138	3.378
1142	2.381
1146	3.378
1150	3.644
1154	4.099
1158	1.312
1162	0.806
1166	0.098
1170	0
1174	1.085
1178	0.059
1182	1.002
1186	0.394
1190	0.491
1194	0.191
1198	0.628
1202	0.661
1206	0.131
1210	0.498
1214	0.411
1218	0.142
1222	0.233
1226	0.472
1230	0.444
1234	0.101
1238	0.409
1242	0.757
1246	0.671
1250	0.09
1254	0.018
1258	0.832
1262	1.116
1266	1.181
1270	1.246
1274	0.951
1278	0.362
1282	1.326
1286	0.488
1290	0.51
1294	0.567
1298	0.622
1302	1.396
1306	0.679
1310	0.716
1314	0.737
1318	1.044
1322	1.293
1326	1.857
1330	0.015
1334	0.179
1338	0.484
1342	0.893
1346	0.109
1350	0.921
1354	0.929
1358	0.928
1362	0.862
1366	0.862
1370	0.887
1374	0.954
1378	0.979
1382	1.004
1386	1.975
1390	0.029
1394	1.042
1398	0.084
1402	0.789
1406	0.491
1410	1.087
1414	0.438
1418	0.766
1422	0.15
1426	1.075
1430	1.093
1434	0.143
1438	0.816
1442	1.16
1446	1.166
1450	1.572
1454	0.948
1458	0.322
1462	0.702
1466	0.244
1470	0.275
1474	0.311
1478	0.353
1482	1.025
1486	0.491
1490	1.378
1494	1.044
1498	0.873
