Mineral: Spodumene
Rruff sample: X050152
Ideal chemistry: LiAlSi_2_O_6_
Locality: unknown
Source: G.R. Rossman
Description: Variety kunzite
x	intensity
206	0
210	3.868
214	8.62
218	0.364
222	11.608
226	111.69
230	154.243
234	30.082
238	3.923
242	24.786
246	220.886
250	539.905
254	365.326
258	229.88
262	145.373
266	56.767
270	9.273
274	4.148
278	1.648
282	27.171
286	94.232
290	261.439
294	578.157
298	634.546
302	325.363
306	94.449
310	18.138
314	4.149
318	5.435
322	71.077
326	214.242
330	315.762
334	125.106
338	8.431
342	2.802
346	99.775
350	570.147
354	1752.92
358	1560.18
362	435.481
366	118.548
370	21.705
374	5.504
378	8.236
382	77.697
386	168.392
390	418.155
394	747.561
398	423.543
402	102.001
406	6.782
410	0.379
414	75.462
418	132.336
422	53.207
426	1.002
430	5.971
434	56.269
438	172.046
442	307.987
446	247.358
450	119.081
454	44.523
458	13.677
462	2.699
466	0.652
470	0.468
474	0.875
478	1.717
482	5.205
486	6.253
490	4.714
494	1.971
498	0.549
502	0.397
506	3.828
510	19.039
514	61.348
518	182.861
522	345.304
526	232.573
530	66.589
534	8.152
538	1.019
542	16.69
546	30.245
550	14.734
554	1.702
558	2.022
562	0.8
566	3.901
570	15.701
574	36.942
578	87.728
582	179.165
586	252.512
590	208.319
594	111.642
598	43.782
602	10.379
606	1.702
610	1.591
614	9.836
618	18.585
622	10.62
626	0.891
630	0.111
634	0.772
638	2.472
642	3.987
646	4.4
650	6.199
654	7.601
658	9.874
662	10.94
666	13.053
670	12.157
674	7.025
678	1.677
682	3.102
686	1.441
690	13.409
694	69.147
698	235.031
702	772.903
706	1661.26
710	1210.9
714	390.291
718	104.762
722	22.637
726	0.037
730	3.428
734	0.759
738	6.272
742	12.279
746	13.057
750	10.494
754	7.507
758	5.044
762	3.643
766	1.438
770	0.195
774	0.912
778	1.753
782	9.231
786	10.8
790	4.286
794	0.592
798	0.003
802	0.293
806	0.283
810	0.483
814	1.147
818	1.143
822	0.237
826	0.399
830	0.441
834	0.578
838	0.748
842	0.042
846	1.233
850	0.422
854	0.117
858	0.081
862	0.309
866	0.288
870	0.502
874	2.035
878	5.689
882	14.552
886	19.365
890	12.236
894	4.52
898	1.4
902	0.043
906	0.025
910	0.587
914	0.679
918	0.895
922	1.588
926	2.07
930	3.082
934	3.466
938	4.304
942	2.268
946	1.291
950	0.604
954	0.803
958	1.333
962	12.939
966	40.964
970	116.173
974	262.827
978	314.266
982	172.674
986	64.204
990	18.939
994	1.581
998	1.938
1002	1.745
1006	15.348
1010	46.995
1014	136.095
1018	315.862
1022	210.432
1026	64.054
1030	23.007
1034	8.409
1038	1.253
1042	2.989
1046	0.757
1050	11.68
1054	12.658
1058	16.854
1062	87.343
1066	329.024
1070	850.411
1074	801.881
1078	300.789
1082	91.817
1086	20.16
1090	1.172
1094	2.596
1098	24.148
1102	86.461
1106	45.715
1110	6.087
1114	0.838
1118	1.051
1122	0.792
1126	1.395
1130	1.463
1134	0.968
1138	0.455
1142	0.327
1146	0.579
1150	0.006
1154	0.855
1158	0.119
1162	0.984
1166	1.151
1170	0.398
1174	0.327
1178	0.516
1182	0.739
1186	0.026
1190	0.621
1194	0.603
1198	0.921
1202	0.186
1206	0.505
1210	0.395
1214	0.606
1218	0.549
1222	0.834
1226	0.21
1230	0.969
1234	0.537
1238	0.699
1242	0.215
1246	0.029
1250	0.61
1254	0.522
1258	0.161
1262	0.319
1266	0.508
1270	0.316
1274	0.344
1278	0.259
1282	0.783
1286	1.049
1290	0.702
1294	0.695
1298	0.684
1302	0.847
1306	0.911
1310	0.941
1314	0.694
1318	0.689
1322	1.164
1326	1.53
1330	0.697
1334	0.543
1338	0.483
1342	1.1
1346	1.306
1350	0.614
1354	1.132
1358	0.056
1362	0.609
1366	0.318
1370	0.897
1374	0.951
1378	1.032
1382	0.409
1386	0.474
1390	0.506
1394	0.138
1398	0.458
1402	0.354
1406	0.242
1410	0.053
1414	0.727
1418	0.647
1422	0.664
1426	1.381
1430	0.745
1434	0.121
1438	0.967
1442	1.956
1446	1.407
1450	0.884
1454	0.181
1458	0.628
1462	1.161
1466	0.723
1470	0.886
1474	0.626
1478	0.724
1482	0.819
1486	0.824
1490	0.752
1494	0.027
1498	0.715
